*SPEF "ieee 1481-1999"
*DESIGN "user_project_wrapper"
*DATE "11:11:11 Fri 11 11, 1111"
*VENDOR "OpenRCX"
*PROGRAM "Parallel Extraction"
*VERSION "1.0"
*DESIGN_FLOW "NAME_SCOPE LOCAL" "PIN_CAP NONE"
*DIVIDER /
*DELIMITER :
*BUS_DELIMITER []
*T_UNIT 1 NS
*C_UNIT 1 PF
*R_UNIT 1 OHM
*L_UNIT 1 HENRY

*NAME_MAP
*1 io_in[0]
*2 io_in[10]
*3 io_in[11]
*4 io_in[12]
*5 io_in[13]
*6 io_in[14]
*7 io_in[15]
*8 io_in[16]
*9 io_in[17]
*10 io_in[18]
*11 io_in[19]
*12 io_in[1]
*13 io_in[20]
*14 io_in[21]
*15 io_in[22]
*16 io_in[23]
*17 io_in[24]
*18 io_in[25]
*19 io_in[26]
*20 io_in[27]
*21 io_in[28]
*22 io_in[29]
*23 io_in[2]
*24 io_in[30]
*25 io_in[31]
*26 io_in[32]
*27 io_in[33]
*28 io_in[34]
*29 io_in[35]
*30 io_in[36]
*31 io_in[37]
*32 io_in[3]
*33 io_in[4]
*34 io_in[5]
*35 io_in[6]
*36 io_in[7]
*37 io_in[8]
*38 io_in[9]
*39 io_oeb[0]
*40 io_oeb[10]
*41 io_oeb[11]
*42 io_oeb[12]
*43 io_oeb[13]
*44 io_oeb[14]
*45 io_oeb[15]
*46 io_oeb[16]
*47 io_oeb[17]
*48 io_oeb[18]
*49 io_oeb[19]
*50 io_oeb[1]
*51 io_oeb[20]
*52 io_oeb[21]
*53 io_oeb[22]
*54 io_oeb[23]
*55 io_oeb[24]
*56 io_oeb[25]
*57 io_oeb[26]
*58 io_oeb[27]
*59 io_oeb[28]
*60 io_oeb[29]
*61 io_oeb[2]
*62 io_oeb[30]
*63 io_oeb[31]
*64 io_oeb[32]
*65 io_oeb[33]
*66 io_oeb[34]
*67 io_oeb[35]
*68 io_oeb[36]
*69 io_oeb[37]
*70 io_oeb[3]
*71 io_oeb[4]
*72 io_oeb[5]
*73 io_oeb[6]
*74 io_oeb[7]
*75 io_oeb[8]
*76 io_oeb[9]
*77 io_out[0]
*78 io_out[10]
*79 io_out[11]
*80 io_out[12]
*81 io_out[13]
*82 io_out[14]
*83 io_out[15]
*84 io_out[16]
*85 io_out[17]
*86 io_out[18]
*87 io_out[19]
*88 io_out[1]
*89 io_out[20]
*90 io_out[21]
*91 io_out[22]
*92 io_out[23]
*93 io_out[24]
*94 io_out[25]
*95 io_out[26]
*96 io_out[27]
*97 io_out[28]
*98 io_out[29]
*99 io_out[2]
*100 io_out[30]
*101 io_out[31]
*102 io_out[32]
*103 io_out[33]
*104 io_out[34]
*105 io_out[35]
*106 io_out[36]
*107 io_out[37]
*108 io_out[3]
*109 io_out[4]
*110 io_out[5]
*111 io_out[6]
*112 io_out[7]
*113 io_out[8]
*114 io_out[9]
*115 la_data_in[0]
*116 la_data_in[10]
*117 la_data_in[11]
*118 la_data_in[12]
*119 la_data_in[13]
*120 la_data_in[14]
*121 la_data_in[15]
*122 la_data_in[16]
*123 la_data_in[17]
*124 la_data_in[18]
*125 la_data_in[19]
*126 la_data_in[1]
*127 la_data_in[20]
*128 la_data_in[21]
*129 la_data_in[22]
*130 la_data_in[23]
*131 la_data_in[24]
*132 la_data_in[25]
*133 la_data_in[26]
*134 la_data_in[27]
*135 la_data_in[28]
*136 la_data_in[29]
*137 la_data_in[2]
*138 la_data_in[30]
*139 la_data_in[31]
*140 la_data_in[32]
*141 la_data_in[33]
*142 la_data_in[34]
*143 la_data_in[35]
*144 la_data_in[36]
*145 la_data_in[37]
*146 la_data_in[38]
*147 la_data_in[39]
*148 la_data_in[3]
*149 la_data_in[40]
*150 la_data_in[41]
*151 la_data_in[42]
*152 la_data_in[43]
*153 la_data_in[44]
*154 la_data_in[45]
*155 la_data_in[46]
*156 la_data_in[47]
*157 la_data_in[48]
*158 la_data_in[49]
*159 la_data_in[4]
*160 la_data_in[50]
*161 la_data_in[51]
*162 la_data_in[52]
*163 la_data_in[53]
*164 la_data_in[54]
*165 la_data_in[55]
*166 la_data_in[56]
*167 la_data_in[57]
*168 la_data_in[58]
*169 la_data_in[59]
*170 la_data_in[5]
*171 la_data_in[60]
*172 la_data_in[61]
*173 la_data_in[62]
*174 la_data_in[63]
*175 la_data_in[6]
*176 la_data_in[7]
*177 la_data_in[8]
*178 la_data_in[9]
*179 la_data_out[0]
*180 la_data_out[10]
*181 la_data_out[11]
*182 la_data_out[12]
*183 la_data_out[13]
*184 la_data_out[14]
*185 la_data_out[15]
*186 la_data_out[16]
*187 la_data_out[17]
*188 la_data_out[18]
*189 la_data_out[19]
*190 la_data_out[1]
*191 la_data_out[20]
*192 la_data_out[21]
*193 la_data_out[22]
*194 la_data_out[23]
*195 la_data_out[24]
*196 la_data_out[25]
*197 la_data_out[26]
*198 la_data_out[27]
*199 la_data_out[28]
*200 la_data_out[29]
*201 la_data_out[2]
*202 la_data_out[30]
*203 la_data_out[31]
*204 la_data_out[32]
*205 la_data_out[33]
*206 la_data_out[34]
*207 la_data_out[35]
*208 la_data_out[36]
*209 la_data_out[37]
*210 la_data_out[38]
*211 la_data_out[39]
*212 la_data_out[3]
*213 la_data_out[40]
*214 la_data_out[41]
*215 la_data_out[42]
*216 la_data_out[43]
*217 la_data_out[44]
*218 la_data_out[45]
*219 la_data_out[46]
*220 la_data_out[47]
*221 la_data_out[48]
*222 la_data_out[49]
*223 la_data_out[4]
*224 la_data_out[50]
*225 la_data_out[51]
*226 la_data_out[52]
*227 la_data_out[53]
*228 la_data_out[54]
*229 la_data_out[55]
*230 la_data_out[56]
*231 la_data_out[57]
*232 la_data_out[58]
*233 la_data_out[59]
*234 la_data_out[5]
*235 la_data_out[60]
*236 la_data_out[61]
*237 la_data_out[62]
*238 la_data_out[63]
*239 la_data_out[6]
*240 la_data_out[7]
*241 la_data_out[8]
*242 la_data_out[9]
*243 la_oenb[0]
*244 la_oenb[10]
*245 la_oenb[11]
*246 la_oenb[12]
*247 la_oenb[13]
*248 la_oenb[14]
*249 la_oenb[15]
*250 la_oenb[16]
*251 la_oenb[17]
*252 la_oenb[18]
*253 la_oenb[19]
*254 la_oenb[1]
*255 la_oenb[20]
*256 la_oenb[21]
*257 la_oenb[22]
*258 la_oenb[23]
*259 la_oenb[24]
*260 la_oenb[25]
*261 la_oenb[26]
*262 la_oenb[27]
*263 la_oenb[28]
*264 la_oenb[29]
*265 la_oenb[2]
*266 la_oenb[30]
*267 la_oenb[31]
*268 la_oenb[32]
*269 la_oenb[33]
*270 la_oenb[34]
*271 la_oenb[35]
*272 la_oenb[36]
*273 la_oenb[37]
*274 la_oenb[38]
*275 la_oenb[39]
*276 la_oenb[3]
*277 la_oenb[40]
*278 la_oenb[41]
*279 la_oenb[42]
*280 la_oenb[43]
*281 la_oenb[44]
*282 la_oenb[45]
*283 la_oenb[46]
*284 la_oenb[47]
*285 la_oenb[48]
*286 la_oenb[49]
*287 la_oenb[4]
*288 la_oenb[50]
*289 la_oenb[51]
*290 la_oenb[52]
*291 la_oenb[53]
*292 la_oenb[54]
*293 la_oenb[55]
*294 la_oenb[56]
*295 la_oenb[57]
*296 la_oenb[58]
*297 la_oenb[59]
*298 la_oenb[5]
*299 la_oenb[60]
*300 la_oenb[61]
*301 la_oenb[62]
*302 la_oenb[63]
*303 la_oenb[6]
*304 la_oenb[7]
*305 la_oenb[8]
*306 la_oenb[9]
*307 user_clock2
*308 user_irq[0]
*309 user_irq[1]
*310 user_irq[2]
*313 wb_clk_i
*314 wb_rst_i
*315 wbs_ack_o
*316 wbs_adr_i[0]
*317 wbs_adr_i[10]
*318 wbs_adr_i[11]
*319 wbs_adr_i[12]
*320 wbs_adr_i[13]
*321 wbs_adr_i[14]
*322 wbs_adr_i[15]
*323 wbs_adr_i[16]
*324 wbs_adr_i[17]
*325 wbs_adr_i[18]
*326 wbs_adr_i[19]
*327 wbs_adr_i[1]
*328 wbs_adr_i[20]
*329 wbs_adr_i[21]
*330 wbs_adr_i[22]
*331 wbs_adr_i[23]
*332 wbs_adr_i[24]
*333 wbs_adr_i[25]
*334 wbs_adr_i[26]
*335 wbs_adr_i[27]
*336 wbs_adr_i[28]
*337 wbs_adr_i[29]
*338 wbs_adr_i[2]
*339 wbs_adr_i[30]
*340 wbs_adr_i[31]
*341 wbs_adr_i[3]
*342 wbs_adr_i[4]
*343 wbs_adr_i[5]
*344 wbs_adr_i[6]
*345 wbs_adr_i[7]
*346 wbs_adr_i[8]
*347 wbs_adr_i[9]
*348 wbs_cyc_i
*349 wbs_dat_i[0]
*350 wbs_dat_i[10]
*351 wbs_dat_i[11]
*352 wbs_dat_i[12]
*353 wbs_dat_i[13]
*354 wbs_dat_i[14]
*355 wbs_dat_i[15]
*356 wbs_dat_i[16]
*357 wbs_dat_i[17]
*358 wbs_dat_i[18]
*359 wbs_dat_i[19]
*360 wbs_dat_i[1]
*361 wbs_dat_i[20]
*362 wbs_dat_i[21]
*363 wbs_dat_i[22]
*364 wbs_dat_i[23]
*365 wbs_dat_i[24]
*366 wbs_dat_i[25]
*367 wbs_dat_i[26]
*368 wbs_dat_i[27]
*369 wbs_dat_i[28]
*370 wbs_dat_i[29]
*371 wbs_dat_i[2]
*372 wbs_dat_i[30]
*373 wbs_dat_i[31]
*374 wbs_dat_i[3]
*375 wbs_dat_i[4]
*376 wbs_dat_i[5]
*377 wbs_dat_i[6]
*378 wbs_dat_i[7]
*379 wbs_dat_i[8]
*380 wbs_dat_i[9]
*381 wbs_dat_o[0]
*382 wbs_dat_o[10]
*383 wbs_dat_o[11]
*384 wbs_dat_o[12]
*385 wbs_dat_o[13]
*386 wbs_dat_o[14]
*387 wbs_dat_o[15]
*388 wbs_dat_o[16]
*389 wbs_dat_o[17]
*390 wbs_dat_o[18]
*391 wbs_dat_o[19]
*392 wbs_dat_o[1]
*393 wbs_dat_o[20]
*394 wbs_dat_o[21]
*395 wbs_dat_o[22]
*396 wbs_dat_o[23]
*397 wbs_dat_o[24]
*398 wbs_dat_o[25]
*399 wbs_dat_o[26]
*400 wbs_dat_o[27]
*401 wbs_dat_o[28]
*402 wbs_dat_o[29]
*403 wbs_dat_o[2]
*404 wbs_dat_o[30]
*405 wbs_dat_o[31]
*406 wbs_dat_o[3]
*407 wbs_dat_o[4]
*408 wbs_dat_o[5]
*409 wbs_dat_o[6]
*410 wbs_dat_o[7]
*411 wbs_dat_o[8]
*412 wbs_dat_o[9]
*413 wbs_sel_i[0]
*414 wbs_sel_i[1]
*415 wbs_sel_i[2]
*416 wbs_sel_i[3]
*417 wbs_stb_i
*418 wbs_we_i
*419 mprj

*PORTS
io_in[0] I
io_in[10] I
io_in[11] I
io_in[12] I
io_in[13] I
io_in[14] I
io_in[15] I
io_in[16] I
io_in[17] I
io_in[18] I
io_in[19] I
io_in[1] I
io_in[20] I
io_in[21] I
io_in[22] I
io_in[23] I
io_in[24] I
io_in[25] I
io_in[26] I
io_in[27] I
io_in[28] I
io_in[29] I
io_in[2] I
io_in[30] I
io_in[31] I
io_in[32] I
io_in[33] I
io_in[34] I
io_in[35] I
io_in[36] I
io_in[37] I
io_in[3] I
io_in[4] I
io_in[5] I
io_in[6] I
io_in[7] I
io_in[8] I
io_in[9] I
io_oeb[0] O
io_oeb[10] O
io_oeb[11] O
io_oeb[12] O
io_oeb[13] O
io_oeb[14] O
io_oeb[15] O
io_oeb[16] O
io_oeb[17] O
io_oeb[18] O
io_oeb[19] O
io_oeb[1] O
io_oeb[20] O
io_oeb[21] O
io_oeb[22] O
io_oeb[23] O
io_oeb[24] O
io_oeb[25] O
io_oeb[26] O
io_oeb[27] O
io_oeb[28] O
io_oeb[29] O
io_oeb[2] O
io_oeb[30] O
io_oeb[31] O
io_oeb[32] O
io_oeb[33] O
io_oeb[34] O
io_oeb[35] O
io_oeb[36] O
io_oeb[37] O
io_oeb[3] O
io_oeb[4] O
io_oeb[5] O
io_oeb[6] O
io_oeb[7] O
io_oeb[8] O
io_oeb[9] O
io_out[0] O
io_out[10] O
io_out[11] O
io_out[12] O
io_out[13] O
io_out[14] O
io_out[15] O
io_out[16] O
io_out[17] O
io_out[18] O
io_out[19] O
io_out[1] O
io_out[20] O
io_out[21] O
io_out[22] O
io_out[23] O
io_out[24] O
io_out[25] O
io_out[26] O
io_out[27] O
io_out[28] O
io_out[29] O
io_out[2] O
io_out[30] O
io_out[31] O
io_out[32] O
io_out[33] O
io_out[34] O
io_out[35] O
io_out[36] O
io_out[37] O
io_out[3] O
io_out[4] O
io_out[5] O
io_out[6] O
io_out[7] O
io_out[8] O
io_out[9] O
la_data_in[0] I
la_data_in[10] I
la_data_in[11] I
la_data_in[12] I
la_data_in[13] I
la_data_in[14] I
la_data_in[15] I
la_data_in[16] I
la_data_in[17] I
la_data_in[18] I
la_data_in[19] I
la_data_in[1] I
la_data_in[20] I
la_data_in[21] I
la_data_in[22] I
la_data_in[23] I
la_data_in[24] I
la_data_in[25] I
la_data_in[26] I
la_data_in[27] I
la_data_in[28] I
la_data_in[29] I
la_data_in[2] I
la_data_in[30] I
la_data_in[31] I
la_data_in[32] I
la_data_in[33] I
la_data_in[34] I
la_data_in[35] I
la_data_in[36] I
la_data_in[37] I
la_data_in[38] I
la_data_in[39] I
la_data_in[3] I
la_data_in[40] I
la_data_in[41] I
la_data_in[42] I
la_data_in[43] I
la_data_in[44] I
la_data_in[45] I
la_data_in[46] I
la_data_in[47] I
la_data_in[48] I
la_data_in[49] I
la_data_in[4] I
la_data_in[50] I
la_data_in[51] I
la_data_in[52] I
la_data_in[53] I
la_data_in[54] I
la_data_in[55] I
la_data_in[56] I
la_data_in[57] I
la_data_in[58] I
la_data_in[59] I
la_data_in[5] I
la_data_in[60] I
la_data_in[61] I
la_data_in[62] I
la_data_in[63] I
la_data_in[6] I
la_data_in[7] I
la_data_in[8] I
la_data_in[9] I
la_data_out[0] O
la_data_out[10] O
la_data_out[11] O
la_data_out[12] O
la_data_out[13] O
la_data_out[14] O
la_data_out[15] O
la_data_out[16] O
la_data_out[17] O
la_data_out[18] O
la_data_out[19] O
la_data_out[1] O
la_data_out[20] O
la_data_out[21] O
la_data_out[22] O
la_data_out[23] O
la_data_out[24] O
la_data_out[25] O
la_data_out[26] O
la_data_out[27] O
la_data_out[28] O
la_data_out[29] O
la_data_out[2] O
la_data_out[30] O
la_data_out[31] O
la_data_out[32] O
la_data_out[33] O
la_data_out[34] O
la_data_out[35] O
la_data_out[36] O
la_data_out[37] O
la_data_out[38] O
la_data_out[39] O
la_data_out[3] O
la_data_out[40] O
la_data_out[41] O
la_data_out[42] O
la_data_out[43] O
la_data_out[44] O
la_data_out[45] O
la_data_out[46] O
la_data_out[47] O
la_data_out[48] O
la_data_out[49] O
la_data_out[4] O
la_data_out[50] O
la_data_out[51] O
la_data_out[52] O
la_data_out[53] O
la_data_out[54] O
la_data_out[55] O
la_data_out[56] O
la_data_out[57] O
la_data_out[58] O
la_data_out[59] O
la_data_out[5] O
la_data_out[60] O
la_data_out[61] O
la_data_out[62] O
la_data_out[63] O
la_data_out[6] O
la_data_out[7] O
la_data_out[8] O
la_data_out[9] O
la_oenb[0] I
la_oenb[10] I
la_oenb[11] I
la_oenb[12] I
la_oenb[13] I
la_oenb[14] I
la_oenb[15] I
la_oenb[16] I
la_oenb[17] I
la_oenb[18] I
la_oenb[19] I
la_oenb[1] I
la_oenb[20] I
la_oenb[21] I
la_oenb[22] I
la_oenb[23] I
la_oenb[24] I
la_oenb[25] I
la_oenb[26] I
la_oenb[27] I
la_oenb[28] I
la_oenb[29] I
la_oenb[2] I
la_oenb[30] I
la_oenb[31] I
la_oenb[32] I
la_oenb[33] I
la_oenb[34] I
la_oenb[35] I
la_oenb[36] I
la_oenb[37] I
la_oenb[38] I
la_oenb[39] I
la_oenb[3] I
la_oenb[40] I
la_oenb[41] I
la_oenb[42] I
la_oenb[43] I
la_oenb[44] I
la_oenb[45] I
la_oenb[46] I
la_oenb[47] I
la_oenb[48] I
la_oenb[49] I
la_oenb[4] I
la_oenb[50] I
la_oenb[51] I
la_oenb[52] I
la_oenb[53] I
la_oenb[54] I
la_oenb[55] I
la_oenb[56] I
la_oenb[57] I
la_oenb[58] I
la_oenb[59] I
la_oenb[5] I
la_oenb[60] I
la_oenb[61] I
la_oenb[62] I
la_oenb[63] I
la_oenb[6] I
la_oenb[7] I
la_oenb[8] I
la_oenb[9] I
user_clock2 I
user_irq[0] O
user_irq[1] O
user_irq[2] O
wb_clk_i I
wb_rst_i I
wbs_ack_o O
wbs_adr_i[0] I
wbs_adr_i[10] I
wbs_adr_i[11] I
wbs_adr_i[12] I
wbs_adr_i[13] I
wbs_adr_i[14] I
wbs_adr_i[15] I
wbs_adr_i[16] I
wbs_adr_i[17] I
wbs_adr_i[18] I
wbs_adr_i[19] I
wbs_adr_i[1] I
wbs_adr_i[20] I
wbs_adr_i[21] I
wbs_adr_i[22] I
wbs_adr_i[23] I
wbs_adr_i[24] I
wbs_adr_i[25] I
wbs_adr_i[26] I
wbs_adr_i[27] I
wbs_adr_i[28] I
wbs_adr_i[29] I
wbs_adr_i[2] I
wbs_adr_i[30] I
wbs_adr_i[31] I
wbs_adr_i[3] I
wbs_adr_i[4] I
wbs_adr_i[5] I
wbs_adr_i[6] I
wbs_adr_i[7] I
wbs_adr_i[8] I
wbs_adr_i[9] I
wbs_cyc_i I
wbs_dat_i[0] I
wbs_dat_i[10] I
wbs_dat_i[11] I
wbs_dat_i[12] I
wbs_dat_i[13] I
wbs_dat_i[14] I
wbs_dat_i[15] I
wbs_dat_i[16] I
wbs_dat_i[17] I
wbs_dat_i[18] I
wbs_dat_i[19] I
wbs_dat_i[1] I
wbs_dat_i[20] I
wbs_dat_i[21] I
wbs_dat_i[22] I
wbs_dat_i[23] I
wbs_dat_i[24] I
wbs_dat_i[25] I
wbs_dat_i[26] I
wbs_dat_i[27] I
wbs_dat_i[28] I
wbs_dat_i[29] I
wbs_dat_i[2] I
wbs_dat_i[30] I
wbs_dat_i[31] I
wbs_dat_i[3] I
wbs_dat_i[4] I
wbs_dat_i[5] I
wbs_dat_i[6] I
wbs_dat_i[7] I
wbs_dat_i[8] I
wbs_dat_i[9] I
wbs_dat_o[0] O
wbs_dat_o[10] O
wbs_dat_o[11] O
wbs_dat_o[12] O
wbs_dat_o[13] O
wbs_dat_o[14] O
wbs_dat_o[15] O
wbs_dat_o[16] O
wbs_dat_o[17] O
wbs_dat_o[18] O
wbs_dat_o[19] O
wbs_dat_o[1] O
wbs_dat_o[20] O
wbs_dat_o[21] O
wbs_dat_o[22] O
wbs_dat_o[23] O
wbs_dat_o[24] O
wbs_dat_o[25] O
wbs_dat_o[26] O
wbs_dat_o[27] O
wbs_dat_o[28] O
wbs_dat_o[29] O
wbs_dat_o[2] O
wbs_dat_o[30] O
wbs_dat_o[31] O
wbs_dat_o[3] O
wbs_dat_o[4] O
wbs_dat_o[5] O
wbs_dat_o[6] O
wbs_dat_o[7] O
wbs_dat_o[8] O
wbs_dat_o[9] O
wbs_sel_i[0] I
wbs_sel_i[1] I
wbs_sel_i[2] I
wbs_sel_i[3] I
wbs_stb_i I
wbs_we_i I

*D_NET *1 0.157564
*CONN
*P io_in[0] I
*I *419:io_in[0] I *D user_proj_example
*CAP
1 io_in[0] 0.0310154
2 *419:io_in[0] 0.000492835
3 *1:9 0.0135236
4 *1:7 0.0130308
5 *1:5 0.0310154
6 *1:5 *164:9 0
7 *1:5 *168:9 0
8 *1:5 *172:9 0.022594
9 *1:5 *293:11 0
10 *1:9 *12:9 0.0393812
11 *1:9 *39:9 0.00385783
12 *1:9 *77:9 0.00265259
*RES
1 io_in[0] *1:5 310.725 
2 *1:5 *1:7 4.5 
3 *1:7 *1:9 162.45 
4 *1:9 *419:io_in[0] 8.505 
*END

*D_NET *12 0.204376
*CONN
*P io_in[1] I
*I *419:io_in[1] I *D user_proj_example
*CAP
1 io_in[1] 0.0396741
2 *419:io_in[1] 0.000531341
3 *12:9 0.00177392
4 *12:7 0.00124258
5 *12:5 0.0396741
6 *12:5 *289:9 0
7 *12:9 *32:9 0.00193426
8 *12:9 *39:9 0.0553386
9 *12:9 *61:9 0.0209724
10 *12:9 *108:9 0.00385304
11 *1:9 *12:9 0.0393812
*RES
1 io_in[1] *12:5 310.545 
2 *12:5 *12:7 4.5 
3 *12:7 *12:9 158.13 
4 *12:9 *419:io_in[1] 8.685 
*END

*D_NET *23 0.207718
*CONN
*P io_in[2] I
*I *419:io_in[2] I *D user_proj_example
*CAP
1 io_in[2] 0.0362027
2 *419:io_in[2] 0.000723856
3 *23:9 0.00256392
4 *23:7 0.00184006
5 *23:5 0.0362027
6 *23:5 *146:9 0.0175711
7 *23:9 *33:9 0.0106137
8 *23:9 *50:9 0.00257772
9 *23:9 *88:9 0.0459365
10 *23:9 *99:9 0.0534855
*RES
1 io_in[2] *23:5 309.645 
2 *23:5 *23:7 4.5 
3 *23:7 *23:9 153.81 
4 *23:9 *419:io_in[2] 9.585 
*END

*D_NET *24 0.0859105
*CONN
*P io_in[30] I
*I *419:io_in[8] I *D user_proj_example
*CAP
1 io_in[30] 0.000790293
2 *419:io_in[8] 0.0192469
3 *24:11 0.0192469
4 *24:9 0.00463931
5 *24:7 0.0054296
6 *24:9 *25:9 0.00254049
7 *24:9 *62:9 0.00155585
8 *24:9 *100:9 0.0297601
9 *24:9 *101:9 0.00270095
*RES
1 io_in[30] *24:7 10.845 
2 *24:7 *24:9 93.51 
3 *24:9 *24:11 4.5 
4 *24:11 *419:io_in[8] 153.945 
*END

*D_NET *25 0.109959
*CONN
*P io_in[31] I
*I *419:io_in[9] I *D user_proj_example
*CAP
1 io_in[31] 0.000905811
2 *419:io_in[9] 0.0191991
3 *25:11 0.0191991
4 *25:9 0.0006835
5 *25:7 0.00158931
6 *25:9 *62:9 0.00747538
7 *25:9 *63:9 0.0251792
8 *25:9 *101:9 0.033187
9 *24:9 *25:9 0.00254049
*RES
1 io_in[31] *25:7 11.385 
2 *25:7 *25:9 102.15 
3 *25:9 *25:11 4.5 
4 *25:11 *419:io_in[9] 153.405 
*END

*D_NET *26 0.121972
*CONN
*P io_in[32] I
*I *419:io_in[10] I *D user_proj_example
*CAP
1 io_in[32] 0.000828799
2 *419:io_in[10] 0.019293
3 *26:11 0.019293
4 *26:9 0.00158474
5 *26:7 0.00241353
6 *26:9 *27:9 0.00261768
7 *26:9 *101:9 0.0263328
8 *26:9 *102:9 0.0367799
9 *26:9 *103:9 0.0128284
*RES
1 io_in[32] *26:7 11.025 
2 *26:7 *26:9 110.97 
3 *26:9 *26:11 4.5 
4 *26:11 *419:io_in[10] 153.765 
*END

*D_NET *27 0.118177
*CONN
*P io_in[33] I
*I *419:io_in[11] I *D user_proj_example
*CAP
1 io_in[33] 0.00088511
2 *419:io_in[11] 0.0239256
3 *27:11 0.0239256
4 *27:9 0.0058834
5 *27:7 0.00676851
6 *27:7 *419:io_in[13] 4.53923e-05
7 *27:9 *63:9 0.0115713
8 *27:9 *101:9 0.00238138
9 *27:9 *103:9 0.0401734
10 *26:9 *27:9 0.00261768
*RES
1 io_in[33] *27:7 11.385 
2 *27:7 *27:9 119.43 
3 *27:9 *27:11 4.5 
4 *27:11 *419:io_in[11] 153.405 
*END

*D_NET *28 0.104572
*CONN
*P io_in[34] I
*I *419:io_in[12] I *D user_proj_example
*CAP
1 io_in[34] 0.0193548
2 *419:io_in[12] 0.000767
3 *28:9 0.00965876
4 *28:7 0.00889176
5 *28:5 0.0193548
6 *28:9 *30:9 0.00385893
7 *28:9 *65:9 0.0426862
*RES
1 io_in[34] *28:5 154.845 
2 *28:5 *28:7 4.5 
3 *28:7 *28:9 128.43 
4 *28:9 *419:io_in[12] 9.945 
*END

*D_NET *29 0.107606
*CONN
*P io_in[35] I
*I *419:io_in[13] I *D user_proj_example
*CAP
1 io_in[35] 0.000751787
2 *419:io_in[13] 0.0193493
3 *29:11 0.0193493
4 *29:9 0.00865059
5 *29:7 0.00940237
6 *29:9 *31:9 0.00341949
7 *29:9 *66:9 0.0459933
8 *29:9 *68:9 0.00064469
9 *27:7 *419:io_in[13] 4.53923e-05
*RES
1 io_in[35] *29:7 10.665 
2 *29:7 *29:9 136.71 
3 *29:9 *29:11 4.5 
4 *29:11 *419:io_in[13] 154.125 
*END

*D_NET *30 0.0795656
*CONN
*P io_in[36] I
*I *419:io_in[14] I *D user_proj_example
*CAP
1 io_in[36] 0.0190231
2 *419:io_in[14] 0.000805506
3 *30:9 0.0183249
4 *30:7 0.0175194
5 *30:5 0.0190231
6 *30:5 *343:9 0
7 *30:5 *379:9 0.0010107
8 *28:9 *30:9 0.00385893
*RES
1 io_in[36] *30:5 154.665 
2 *30:5 *30:7 4.5 
3 *30:7 *30:9 145.71 
4 *30:9 *419:io_in[14] 10.125 
*END

*D_NET *31 0.154804
*CONN
*P io_in[37] I
*I *419:io_in[15] I *D user_proj_example
*CAP
1 io_in[37] 0.000828799
2 *419:io_in[15] 0.01931
3 *31:11 0.01931
4 *31:9 0.0019882
5 *31:7 0.002817
6 *31:9 *68:9 0.0529772
7 *31:9 *107:9 0.0541533
8 *29:9 *31:9 0.00341949
*RES
1 io_in[37] *31:7 11.025 
2 *31:7 *31:9 154.17 
3 *31:9 *31:11 4.5 
4 *31:11 *419:io_in[15] 153.765 
*END

*D_NET *32 0.190727
*CONN
*P io_in[3] I
*I *419:io_in[3] I *D user_proj_example
*CAP
1 io_in[3] 0.0388071
2 *419:io_in[3] 0.000608338
3 *32:9 0.00119034
4 *32:7 0.000582001
5 *32:5 0.0388071
6 *32:9 *33:9 0.00674992
7 *32:9 *39:9 0.00438203
8 *32:9 *50:9 0.0283445
9 *32:9 *71:9 0.0175355
10 *32:9 *108:9 0.0517863
11 *12:9 *32:9 0.00193426
*RES
1 io_in[3] *32:5 310.185 
2 *32:5 *32:7 4.5 
3 *32:7 *32:9 149.49 
4 *32:9 *419:io_in[3] 9.045 
*END

*D_NET *33 0.180451
*CONN
*P io_in[4] I
*I *419:io_in[4] I *D user_proj_example
*CAP
1 io_in[4] 0.0387301
2 *419:io_in[4] 0.000800602
3 *33:9 0.00246674
4 *33:7 0.00166613
5 *33:5 0.0387301
6 *33:9 *34:9 0.0328925
7 *33:9 *50:9 0.00261686
8 *33:9 *71:9 0.0414926
9 *33:9 *99:9 0.00369215
10 *23:9 *33:9 0.0106137
11 *32:9 *33:9 0.00674992
*RES
1 io_in[4] *33:5 309.825 
2 *33:5 *33:7 4.5 
3 *33:7 *33:9 145.17 
4 *33:9 *419:io_in[4] 9.405 
*END

*D_NET *34 0.174499
*CONN
*P io_in[5] I
*I *419:io_in[5] I *D user_proj_example
*CAP
1 io_in[5] 0.0386746
2 *419:io_in[5] 0.00070693
3 *34:9 0.00261018
4 *34:7 0.00190325
5 *34:5 0.0386746
6 *34:9 *35:9 0.000870037
7 *34:9 *36:9 0.00253316
8 *34:9 *71:9 0.00741786
9 *34:9 *110:9 0.0482158
10 *33:9 *34:9 0.0328925
*RES
1 io_in[5] *34:5 309.645 
2 *34:5 *34:7 4.5 
3 *34:7 *34:9 140.85 
4 *34:9 *419:io_in[5] 9.585 
*END

*D_NET *35 0.178282
*CONN
*P io_in[6] I
*I *419:io_in[6] I *D user_proj_example
*CAP
1 io_in[6] 0.0388071
2 *419:io_in[6] 0.000591426
3 *35:9 0.00124801
4 *35:7 0.000656586
5 *35:5 0.0388071
6 *35:9 *36:9 0.0293935
7 *35:9 *71:9 0.0231125
8 *35:9 *72:9 0.00282184
9 *35:9 *73:9 0.0379208
10 *35:9 *111:9 0.00405268
11 *34:9 *35:9 0.000870037
*RES
1 io_in[6] *35:5 310.185 
2 *35:5 *35:7 4.5 
3 *35:7 *35:9 136.53 
4 *35:9 *419:io_in[6] 9.045 
*END

*D_NET *36 0.162991
*CONN
*P io_in[7] I
*I *419:io_in[7] I *D user_proj_example
*CAP
1 io_in[7] 0.0387516
2 *419:io_in[7] 0.000579152
3 *36:9 0.00238625
4 *36:7 0.00180709
5 *36:5 0.0387516
6 *36:9 *73:9 0.00748396
7 *36:9 *74:9 0.0362548
8 *36:9 *110:9 0.00105498
9 *36:9 *112:9 0.00399499
10 *34:9 *36:9 0.00253316
11 *35:9 *36:9 0.0293935
*RES
1 io_in[7] *36:5 310.005 
2 *36:5 *36:7 4.5 
3 *36:7 *36:9 132.21 
4 *36:9 *419:io_in[7] 9.225 
*END

*D_NET *39 0.203621
*CONN
*P io_oeb[0] O
*I *419:io_oeb[0] O *D user_proj_example
*CAP
1 io_oeb[0] 0.0397901
2 *419:io_oeb[0] 0.000569847
3 *39:11 0.0397901
4 *39:9 0.000953987
5 *39:7 0.00152383
6 io_oeb[0] *227:9 0
7 io_oeb[0] *282:9 0
8 *39:9 *50:9 0.00173508
9 *39:9 *77:9 0.05568
10 *1:9 *39:9 0.00385783
11 *12:9 *39:9 0.0553386
12 *32:9 *39:9 0.00438203
*RES
1 *419:io_oeb[0] *39:7 8.865 
2 *39:7 *39:9 159.39 
3 *39:9 *39:11 4.5 
4 *39:11 io_oeb[0] 310.365 
*END

*D_NET *50 0.209554
*CONN
*P io_oeb[1] O
*I *419:io_oeb[1] O *D user_proj_example
*CAP
1 io_oeb[1] 0.0371461
2 *419:io_oeb[1] 0.000646859
3 *50:11 0.0371461
4 *50:9 0.000612432
5 *50:7 0.00125929
6 io_oeb[1] *272:9 0.0127272
7 *50:9 *77:9 0.0303896
8 *50:9 *88:9 0.0543521
9 *23:9 *50:9 0.00257772
10 *32:9 *50:9 0.0283445
11 *33:9 *50:9 0.00261686
12 *39:9 *50:9 0.00173508
*RES
1 *419:io_oeb[1] *50:7 9.225 
2 *50:7 *50:9 155.25 
3 *50:9 *50:11 4.5 
4 *50:11 io_oeb[1] 310.005 
*END

*D_NET *61 0.168973
*CONN
*P io_oeb[2] O
*I *419:io_oeb[2] O *D user_proj_example
*CAP
1 io_oeb[2] 0.0389226
2 *419:io_oeb[2] 0.000509762
3 *61:11 0.0389226
4 *61:9 0.00684476
5 *61:7 0.00735452
6 *61:9 *70:9 0.0351701
7 *61:9 *108:9 0.00223148
8 *61:9 *109:9 0.0180453
9 *12:9 *61:9 0.0209724
*RES
1 *419:io_oeb[2] *61:7 8.505 
2 *61:7 *61:9 150.93 
3 *61:9 *61:11 4.5 
4 *61:11 io_oeb[2] 310.725 
*END

*D_NET *62 0.0800098
*CONN
*P io_oeb[30] O
*I *419:io_oeb[8] O *D user_proj_example
*CAP
1 io_oeb[30] 0.000881981
2 *419:io_oeb[8] 0.019139
3 *62:9 0.00815195
4 *62:7 0.00726997
5 *62:5 0.019139
6 io_oeb[30] *102:5 0.000337223
7 *62:9 *63:9 0.0160594
8 *24:9 *62:9 0.00155585
9 *25:9 *62:9 0.00747538
*RES
1 *419:io_oeb[8] *62:5 153.045 
2 *62:5 *62:7 4.5 
3 *62:7 *62:9 99.27 
4 *62:9 io_oeb[30] 11.745 
*END

*D_NET *63 0.105194
*CONN
*P io_oeb[31] O
*I *419:io_oeb[9] O *D user_proj_example
*CAP
1 io_oeb[31] 0.000944317
2 *419:io_oeb[9] 0.0191775
3 *63:9 0.00539215
4 *63:7 0.00444784
5 *63:5 0.0191775
6 *63:9 *101:9 0.00324479
7 *25:9 *63:9 0.0251792
8 *27:9 *63:9 0.0115713
9 *62:9 *63:9 0.0160594
*RES
1 *419:io_oeb[9] *63:5 153.225 
2 *63:5 *63:7 4.5 
3 *63:7 *63:9 107.91 
4 *63:9 io_oeb[31] 11.565 
*END

*D_NET *64 0.0973211
*CONN
*P io_oeb[32] O
*I *419:io_oeb[10] O *D user_proj_example
*CAP
1 io_oeb[32] 0.000948596
2 *419:io_oeb[10] 0.0193531
3 *64:9 0.0083766
4 *64:7 0.007428
5 *64:5 0.0193531
6 *64:9 *102:9 0.0378347
7 *64:9 *103:9 0.000697873
8 *64:9 *104:9 0.00332903
*RES
1 *419:io_oeb[10] *64:5 154.125 
2 *64:5 *64:7 4.5 
3 *64:7 *64:9 116.55 
4 *64:9 io_oeb[32] 10.665 
*END

*D_NET *65 0.101322
*CONN
*P io_oeb[33] O
*I *419:io_oeb[11] O *D user_proj_example
*CAP
1 io_oeb[33] 0.0193163
2 *419:io_oeb[11] 0.000932513
3 *65:11 0.0193163
4 *65:9 0.00906897
5 *65:7 0.0100015
6 *28:9 *65:9 0.0426862
*RES
1 *419:io_oeb[11] *65:7 10.125 
2 *65:7 *65:9 125.55 
3 *65:9 *65:11 4.5 
4 *65:11 io_oeb[33] 154.665 
*END

*D_NET *66 0.138727
*CONN
*P io_oeb[34] O
*I *419:io_oeb[12] O *D user_proj_example
*CAP
1 io_oeb[34] 0.000987103
2 *419:io_oeb[12] 0.0193315
3 *66:9 0.00269201
4 *66:7 0.0017049
5 *66:5 0.0193315
6 *66:9 *68:9 0.00284784
7 *66:9 *104:9 0.0448696
8 *66:9 *106:9 0.000968949
9 *29:9 *66:9 0.0459933
*RES
1 *419:io_oeb[12] *66:5 153.945 
2 *66:5 *66:7 4.5 
3 *66:7 *66:9 133.83 
4 *66:9 io_oeb[34] 10.845 
*END

*D_NET *67 0.139759
*CONN
*P io_oeb[35] O
*I *419:io_oeb[13] O *D user_proj_example
*CAP
1 io_oeb[35] 0.000944317
2 *419:io_oeb[13] 0.0192114
3 *67:9 0.00314816
4 *67:7 0.00220384
5 *67:5 0.0192114
6 *67:9 *104:9 0.00522149
7 *67:9 *105:9 0.048392
8 *67:9 *106:9 0.0414269
*RES
1 *419:io_oeb[13] *67:5 153.225 
2 *67:5 *67:7 4.5 
3 *67:7 *67:9 142.47 
4 *67:9 io_oeb[35] 11.565 
*END

*D_NET *68 0.152361
*CONN
*P io_oeb[36] O
*I *419:io_oeb[14] O *D user_proj_example
*CAP
1 io_oeb[36] 0.000867305
2 *419:io_oeb[14] 0.0192715
3 *68:9 0.00274412
4 *68:7 0.00187681
5 *68:5 0.0192715
6 *68:9 *106:9 0.0518598
7 *29:9 *68:9 0.00064469
8 *31:9 *68:9 0.0529772
9 *66:9 *68:9 0.00284784
*RES
1 *419:io_oeb[14] *68:5 153.585 
2 *68:5 *68:7 4.5 
3 *68:7 *68:9 151.11 
4 *68:9 io_oeb[36] 11.205 
*END

*D_NET *69 0.118489
*CONN
*P io_oeb[37] O
*I *419:io_oeb[15] O *D user_proj_example
*CAP
1 io_oeb[37] 0.000751787
2 *419:io_oeb[15] 0.0193813
3 *69:9 0.0121999
4 *69:7 0.0114481
5 *69:5 0.0193813
6 *69:5 io_out[35] 1.12522e-05
7 *69:9 *107:9 0.0553159
*RES
1 *419:io_oeb[15] *69:5 154.125 
2 *69:5 *69:7 4.5 
3 *69:7 *69:9 159.75 
4 *69:9 io_oeb[37] 10.665 
*END

*D_NET *70 0.184571
*CONN
*P io_oeb[3] O
*I *419:io_oeb[3] O *D user_proj_example
*CAP
1 io_oeb[3] 0.0388841
2 *419:io_oeb[3] 0.000548268
3 *70:11 0.0388841
4 *70:9 0.000746852
5 *70:7 0.00129512
6 *70:9 *71:9 0.00260777
7 *70:9 *72:9 0.00768347
8 *70:9 *108:9 0.0511236
9 *70:9 *109:9 0.00762767
10 *61:9 *70:9 0.0351701
*RES
1 *419:io_oeb[3] *70:7 8.685 
2 *70:7 *70:9 146.61 
3 *70:9 *70:11 4.5 
4 *70:11 io_oeb[3] 310.545 
*END

*D_NET *71 0.176913
*CONN
*P io_oeb[4] O
*I *419:io_oeb[4] O *D user_proj_example
*CAP
1 io_oeb[4] 0.0387516
2 *419:io_oeb[4] 0.000773168
3 *71:11 0.0387516
4 *71:9 0.000931918
5 *71:7 0.00170509
6 *71:9 *72:9 0.000129686
7 *71:9 *108:9 0.00370358
8 *32:9 *71:9 0.0175355
9 *33:9 *71:9 0.0414926
10 *34:9 *71:9 0.00741786
11 *35:9 *71:9 0.0231125
12 *70:9 *71:9 0.00260777
*RES
1 *419:io_oeb[4] *71:7 9.225 
2 *71:7 *71:9 142.29 
3 *71:9 *71:11 4.5 
4 *71:11 io_oeb[4] 310.005 
*END

*D_NET *72 0.162495
*CONN
*P io_oeb[5] O
*I *419:io_oeb[5] O *D user_proj_example
*CAP
1 io_oeb[5] 0.0388803
2 *419:io_oeb[5] 0.000492835
3 *72:11 0.0388803
4 *72:9 0.00547384
5 *72:7 0.00596668
6 io_oeb[5] *108:7 1.79031e-05
7 *72:9 *109:9 0.0236452
8 *72:9 *111:9 0.0385026
9 *35:9 *72:9 0.00282184
10 *70:9 *72:9 0.00768347
11 *71:9 *72:9 0.000129686
*RES
1 *419:io_oeb[5] *72:7 8.505 
2 *72:7 *72:9 137.79 
3 *72:9 *72:11 4.5 
4 *72:11 io_oeb[5] 310.725 
*END

*D_NET *73 0.17351
*CONN
*P io_oeb[6] O
*I *419:io_oeb[6] O *D user_proj_example
*CAP
1 io_oeb[6] 0.0388286
2 *419:io_oeb[6] 0.000535994
3 *73:11 0.0388286
4 *73:9 0.00172107
5 *73:7 0.00225706
6 *73:9 *111:9 0.0459341
7 *35:9 *73:9 0.0379208
8 *36:9 *73:9 0.00748396
*RES
1 *419:io_oeb[6] *73:7 8.865 
2 *73:7 *73:9 133.65 
3 *73:9 *73:11 4.5 
4 *73:11 io_oeb[6] 310.365 
*END

*D_NET *74 0.167046
*CONN
*P io_oeb[7] O
*I *419:io_oeb[7] O *D user_proj_example
*CAP
1 io_oeb[7] 0.0387131
2 *419:io_oeb[7] 0.000600732
3 *74:11 0.0387131
4 *74:9 0.00395041
5 *74:7 0.00455114
6 *74:9 *112:9 0.0442627
7 *36:9 *74:9 0.0362548
*RES
1 *419:io_oeb[7] *74:7 9.405 
2 *74:7 *74:9 129.33 
3 *74:9 *74:11 4.5 
4 *74:11 io_oeb[7] 309.825 
*END

*D_NET *77 0.184445
*CONN
*P io_out[0] O
*I *419:io_out[0] O *D user_proj_example
*CAP
1 io_out[0] 0.0399067
2 *419:io_out[0] 0.000608353
3 *77:11 0.0399067
4 *77:9 0.00538457
5 *77:7 0.00599293
6 io_out[0] *160:9 0
7 io_out[0] *297:9 0
8 *77:9 *88:9 0.00392398
9 *1:9 *77:9 0.00265259
10 *39:9 *77:9 0.05568
11 *50:9 *77:9 0.0303896
*RES
1 *419:io_out[0] *77:7 9.045 
2 *77:7 *77:9 161.01 
3 *77:9 *77:11 4.5 
4 *77:11 io_out[0] 310.185 
*END

*D_NET *88 0.193228
*CONN
*P io_out[1] O
*I *419:io_out[1] O *D user_proj_example
*CAP
1 io_out[1] 0.036079
2 *419:io_out[1] 0.000685365
3 *88:11 0.036079
4 *88:9 0.00348482
5 *88:7 0.00417018
6 io_out[1] *277:9 0.00851736
7 *23:9 *88:9 0.0459365
8 *50:9 *88:9 0.0543521
9 *77:9 *88:9 0.00392398
*RES
1 *419:io_out[1] *88:7 9.405 
2 *88:7 *88:9 156.69 
3 *88:9 *88:11 4.5 
4 *88:11 io_out[1] 309.825 
*END

*D_NET *99 0.155457
*CONN
*P io_out[2] O
*I *419:io_out[2] O *D user_proj_example
*CAP
1 io_out[2] 0.0386531
2 *419:io_out[2] 0.000762363
3 *99:11 0.0386531
4 *99:9 0.00972437
5 *99:7 0.0104867
6 *23:9 *99:9 0.0534855
7 *33:9 *99:9 0.00369215
*RES
1 *419:io_out[2] *99:7 9.765 
2 *99:7 *99:9 152.37 
3 *99:9 *99:11 4.5 
4 *99:11 io_out[2] 309.465 
*END

*D_NET *100 0.0853111
*CONN
*P io_out[30] O
*I *419:io_out[8] O *D user_proj_example
*CAP
1 io_out[30] 0.000751787
2 *419:io_out[8] 0.0192854
3 *100:9 0.00697108
4 *100:7 0.00621929
5 *100:5 0.0192854
6 *100:9 *101:9 0.00303798
7 *24:9 *100:9 0.0297601
*RES
1 *419:io_out[8] *100:5 154.125 
2 *100:5 *100:7 4.5 
3 *100:7 *100:9 96.57 
4 *100:9 io_out[30] 10.665 
*END

*D_NET *101 0.112501
*CONN
*P io_out[31] O
*I *419:io_out[9] O *D user_proj_example
*CAP
1 io_out[31] 0.000867305
2 *419:io_out[9] 0.0192376
3 *101:9 0.00157037
4 *101:7 0.000703067
5 *101:5 0.0192376
6 *24:9 *101:9 0.00270095
7 *25:9 *101:9 0.033187
8 *26:9 *101:9 0.0263328
9 *27:9 *101:9 0.00238138
10 *63:9 *101:9 0.00324479
11 *100:9 *101:9 0.00303798
*RES
1 *419:io_out[9] *101:5 153.585 
2 *101:5 *101:7 4.5 
3 *101:7 *101:9 105.03 
4 *101:9 io_out[31] 11.205 
*END

*D_NET *102 0.122469
*CONN
*P io_out[32] O
*I *419:io_out[10] O *D user_proj_example
*CAP
1 io_out[32] 0.000790293
2 *419:io_out[10] 0.0192476
3 *102:9 0.00239586
4 *102:7 0.00160557
5 *102:5 0.0192476
6 *102:9 *103:9 0.00423023
7 io_oeb[30] *102:5 0.000337223
8 *26:9 *102:9 0.0367799
9 *64:9 *102:9 0.0378347
*RES
1 *419:io_out[10] *102:5 153.945 
2 *102:5 *102:7 4.5 
3 *102:7 *102:9 113.67 
4 *102:9 io_out[32] 10.845 
*END

*D_NET *103 0.127235
*CONN
*P io_out[33] O
*I *419:io_out[11] O *D user_proj_example
*CAP
1 io_out[33] 0.000867305
2 *419:io_out[11] 0.0192376
3 *103:9 0.00248534
4 *103:7 0.00161803
5 *103:5 0.0192376
6 *103:9 *104:9 0.0253884
7 *103:9 *105:9 0.000470472
8 *26:9 *103:9 0.0128284
9 *27:9 *103:9 0.0401734
10 *64:9 *103:9 0.000697873
11 *102:9 *103:9 0.00423023
*RES