*SPEF "ieee 1481-1999"
*DESIGN "user_project_wrapper"
*DATE "11:11:11 Fri 11 11, 1111"
*VENDOR "OpenRCX"
*PROGRAM "Parallel Extraction"
*VERSION "1.0"
*DESIGN_FLOW "NAME_SCOPE LOCAL" "PIN_CAP NONE"
*DIVIDER /
*DELIMITER :
*BUS_DELIMITER []
*T_UNIT 1 NS
*C_UNIT 1 PF
*R_UNIT 1 OHM
*L_UNIT 1 HENRY

*NAME_MAP
*1 io_in[0]
*2 io_in[10]
*3 io_in[11]
*4 io_in[12]
*5 io_in[13]
*6 io_in[14]
*7 io_in[15]
*8 io_in[16]
*9 io_in[17]
*10 io_in[18]
*11 io_in[19]
*12 io_in[1]
*13 io_in[20]
*14 io_in[21]
*15 io_in[22]
*16 io_in[23]
*17 io_in[24]
*18 io_in[25]
*19 io_in[26]
*20 io_in[27]
*21 io_in[28]
*22 io_in[29]
*23 io_in[2]
*24 io_in[30]
*25 io_in[31]
*26 io_in[32]
*27 io_in[33]
*28 io_in[34]
*29 io_in[35]
*30 io_in[36]
*31 io_in[37]
*32 io_in[3]
*33 io_in[4]
*34 io_in[5]
*35 io_in[6]
*36 io_in[7]
*37 io_in[8]
*38 io_in[9]
*39 io_oeb[0]
*40 io_oeb[10]
*41 io_oeb[11]
*42 io_oeb[12]
*43 io_oeb[13]
*44 io_oeb[14]
*45 io_oeb[15]
*46 io_oeb[16]
*47 io_oeb[17]
*48 io_oeb[18]
*49 io_oeb[19]
*50 io_oeb[1]
*51 io_oeb[20]
*52 io_oeb[21]
*53 io_oeb[22]
*54 io_oeb[23]
*55 io_oeb[24]
*56 io_oeb[25]
*57 io_oeb[26]
*58 io_oeb[27]
*59 io_oeb[28]
*60 io_oeb[29]
*61 io_oeb[2]
*62 io_oeb[30]
*63 io_oeb[31]
*64 io_oeb[32]
*65 io_oeb[33]
*66 io_oeb[34]
*67 io_oeb[35]
*68 io_oeb[36]
*69 io_oeb[37]
*70 io_oeb[3]
*71 io_oeb[4]
*72 io_oeb[5]
*73 io_oeb[6]
*74 io_oeb[7]
*75 io_oeb[8]
*76 io_oeb[9]
*77 io_out[0]
*78 io_out[10]
*79 io_out[11]
*80 io_out[12]
*81 io_out[13]
*82 io_out[14]
*83 io_out[15]
*84 io_out[16]
*85 io_out[17]
*86 io_out[18]
*87 io_out[19]
*88 io_out[1]
*89 io_out[20]
*90 io_out[21]
*91 io_out[22]
*92 io_out[23]
*93 io_out[24]
*94 io_out[25]
*95 io_out[26]
*96 io_out[27]
*97 io_out[28]
*98 io_out[29]
*99 io_out[2]
*100 io_out[30]
*101 io_out[31]
*102 io_out[32]
*103 io_out[33]
*104 io_out[34]
*105 io_out[35]
*106 io_out[36]
*107 io_out[37]
*108 io_out[3]
*109 io_out[4]
*110 io_out[5]
*111 io_out[6]
*112 io_out[7]
*113 io_out[8]
*114 io_out[9]
*115 la_data_in[0]
*116 la_data_in[10]
*117 la_data_in[11]
*118 la_data_in[12]
*119 la_data_in[13]
*120 la_data_in[14]
*121 la_data_in[15]
*122 la_data_in[16]
*123 la_data_in[17]
*124 la_data_in[18]
*125 la_data_in[19]
*126 la_data_in[1]
*127 la_data_in[20]
*128 la_data_in[21]
*129 la_data_in[22]
*130 la_data_in[23]
*131 la_data_in[24]
*132 la_data_in[25]
*133 la_data_in[26]
*134 la_data_in[27]
*135 la_data_in[28]
*136 la_data_in[29]
*137 la_data_in[2]
*138 la_data_in[30]
*139 la_data_in[31]
*140 la_data_in[32]
*141 la_data_in[33]
*142 la_data_in[34]
*143 la_data_in[35]
*144 la_data_in[36]
*145 la_data_in[37]
*146 la_data_in[38]
*147 la_data_in[39]
*148 la_data_in[3]
*149 la_data_in[40]
*150 la_data_in[41]
*151 la_data_in[42]
*152 la_data_in[43]
*153 la_data_in[44]
*154 la_data_in[45]
*155 la_data_in[46]
*156 la_data_in[47]
*157 la_data_in[48]
*158 la_data_in[49]
*159 la_data_in[4]
*160 la_data_in[50]
*161 la_data_in[51]
*162 la_data_in[52]
*163 la_data_in[53]
*164 la_data_in[54]
*165 la_data_in[55]
*166 la_data_in[56]
*167 la_data_in[57]
*168 la_data_in[58]
*169 la_data_in[59]
*170 la_data_in[5]
*171 la_data_in[60]
*172 la_data_in[61]
*173 la_data_in[62]
*174 la_data_in[63]
*175 la_data_in[6]
*176 la_data_in[7]
*177 la_data_in[8]
*178 la_data_in[9]
*179 la_data_out[0]
*180 la_data_out[10]
*181 la_data_out[11]
*182 la_data_out[12]
*183 la_data_out[13]
*184 la_data_out[14]
*185 la_data_out[15]
*186 la_data_out[16]
*187 la_data_out[17]
*188 la_data_out[18]
*189 la_data_out[19]
*190 la_data_out[1]
*191 la_data_out[20]
*192 la_data_out[21]
*193 la_data_out[22]
*194 la_data_out[23]
*195 la_data_out[24]
*196 la_data_out[25]
*197 la_data_out[26]
*198 la_data_out[27]
*199 la_data_out[28]
*200 la_data_out[29]
*201 la_data_out[2]
*202 la_data_out[30]
*203 la_data_out[31]
*204 la_data_out[32]
*205 la_data_out[33]
*206 la_data_out[34]
*207 la_data_out[35]
*208 la_data_out[36]
*209 la_data_out[37]
*210 la_data_out[38]
*211 la_data_out[39]
*212 la_data_out[3]
*213 la_data_out[40]
*214 la_data_out[41]
*215 la_data_out[42]
*216 la_data_out[43]
*217 la_data_out[44]
*218 la_data_out[45]
*219 la_data_out[46]
*220 la_data_out[47]
*221 la_data_out[48]
*222 la_data_out[49]
*223 la_data_out[4]
*224 la_data_out[50]
*225 la_data_out[51]
*226 la_data_out[52]
*227 la_data_out[53]
*228 la_data_out[54]
*229 la_data_out[55]
*230 la_data_out[56]
*231 la_data_out[57]
*232 la_data_out[58]
*233 la_data_out[59]
*234 la_data_out[5]
*235 la_data_out[60]
*236 la_data_out[61]
*237 la_data_out[62]
*238 la_data_out[63]
*239 la_data_out[6]
*240 la_data_out[7]
*241 la_data_out[8]
*242 la_data_out[9]
*243 la_oenb[0]
*244 la_oenb[10]
*245 la_oenb[11]
*246 la_oenb[12]
*247 la_oenb[13]
*248 la_oenb[14]
*249 la_oenb[15]
*250 la_oenb[16]
*251 la_oenb[17]
*252 la_oenb[18]
*253 la_oenb[19]
*254 la_oenb[1]
*255 la_oenb[20]
*256 la_oenb[21]
*257 la_oenb[22]
*258 la_oenb[23]
*259 la_oenb[24]
*260 la_oenb[25]
*261 la_oenb[26]
*262 la_oenb[27]
*263 la_oenb[28]
*264 la_oenb[29]
*265 la_oenb[2]
*266 la_oenb[30]
*267 la_oenb[31]
*268 la_oenb[32]
*269 la_oenb[33]
*270 la_oenb[34]
*271 la_oenb[35]
*272 la_oenb[36]
*273 la_oenb[37]
*274 la_oenb[38]
*275 la_oenb[39]
*276 la_oenb[3]
*277 la_oenb[40]
*278 la_oenb[41]
*279 la_oenb[42]
*280 la_oenb[43]
*281 la_oenb[44]
*282 la_oenb[45]
*283 la_oenb[46]
*284 la_oenb[47]
*285 la_oenb[48]
*286 la_oenb[49]
*287 la_oenb[4]
*288 la_oenb[50]
*289 la_oenb[51]
*290 la_oenb[52]
*291 la_oenb[53]
*292 la_oenb[54]
*293 la_oenb[55]
*294 la_oenb[56]
*295 la_oenb[57]
*296 la_oenb[58]
*297 la_oenb[59]
*298 la_oenb[5]
*299 la_oenb[60]
*300 la_oenb[61]
*301 la_oenb[62]
*302 la_oenb[63]
*303 la_oenb[6]
*304 la_oenb[7]
*305 la_oenb[8]
*306 la_oenb[9]
*307 user_clock2
*308 user_irq[0]
*309 user_irq[1]
*310 user_irq[2]
*313 wb_clk_i
*314 wb_rst_i
*315 wbs_ack_o
*316 wbs_adr_i[0]
*317 wbs_adr_i[10]
*318 wbs_adr_i[11]
*319 wbs_adr_i[12]
*320 wbs_adr_i[13]
*321 wbs_adr_i[14]
*322 wbs_adr_i[15]
*323 wbs_adr_i[16]
*324 wbs_adr_i[17]
*325 wbs_adr_i[18]
*326 wbs_adr_i[19]
*327 wbs_adr_i[1]
*328 wbs_adr_i[20]
*329 wbs_adr_i[21]
*330 wbs_adr_i[22]
*331 wbs_adr_i[23]
*332 wbs_adr_i[24]
*333 wbs_adr_i[25]
*334 wbs_adr_i[26]
*335 wbs_adr_i[27]
*336 wbs_adr_i[28]
*337 wbs_adr_i[29]
*338 wbs_adr_i[2]
*339 wbs_adr_i[30]
*340 wbs_adr_i[31]
*341 wbs_adr_i[3]
*342 wbs_adr_i[4]
*343 wbs_adr_i[5]
*344 wbs_adr_i[6]
*345 wbs_adr_i[7]
*346 wbs_adr_i[8]
*347 wbs_adr_i[9]
*348 wbs_cyc_i
*349 wbs_dat_i[0]
*350 wbs_dat_i[10]
*351 wbs_dat_i[11]
*352 wbs_dat_i[12]
*353 wbs_dat_i[13]
*354 wbs_dat_i[14]
*355 wbs_dat_i[15]
*356 wbs_dat_i[16]
*357 wbs_dat_i[17]
*358 wbs_dat_i[18]
*359 wbs_dat_i[19]
*360 wbs_dat_i[1]
*361 wbs_dat_i[20]
*362 wbs_dat_i[21]
*363 wbs_dat_i[22]
*364 wbs_dat_i[23]
*365 wbs_dat_i[24]
*366 wbs_dat_i[25]
*367 wbs_dat_i[26]
*368 wbs_dat_i[27]
*369 wbs_dat_i[28]
*370 wbs_dat_i[29]
*371 wbs_dat_i[2]
*372 wbs_dat_i[30]
*373 wbs_dat_i[31]
*374 wbs_dat_i[3]
*375 wbs_dat_i[4]
*376 wbs_dat_i[5]
*377 wbs_dat_i[6]
*378 wbs_dat_i[7]
*379 wbs_dat_i[8]
*380 wbs_dat_i[9]
*381 wbs_dat_o[0]
*382 wbs_dat_o[10]
*383 wbs_dat_o[11]
*384 wbs_dat_o[12]
*385 wbs_dat_o[13]
*386 wbs_dat_o[14]
*387 wbs_dat_o[15]
*388 wbs_dat_o[16]
*389 wbs_dat_o[17]
*390 wbs_dat_o[18]
*391 wbs_dat_o[19]
*392 wbs_dat_o[1]
*393 wbs_dat_o[20]
*394 wbs_dat_o[21]
*395 wbs_dat_o[22]
*396 wbs_dat_o[23]
*397 wbs_dat_o[24]
*398 wbs_dat_o[25]
*399 wbs_dat_o[26]
*400 wbs_dat_o[27]
*401 wbs_dat_o[28]
*402 wbs_dat_o[29]
*403 wbs_dat_o[2]
*404 wbs_dat_o[30]
*405 wbs_dat_o[31]
*406 wbs_dat_o[3]
*407 wbs_dat_o[4]
*408 wbs_dat_o[5]
*409 wbs_dat_o[6]
*410 wbs_dat_o[7]
*411 wbs_dat_o[8]
*412 wbs_dat_o[9]
*413 wbs_sel_i[0]
*414 wbs_sel_i[1]
*415 wbs_sel_i[2]
*416 wbs_sel_i[3]
*417 wbs_stb_i
*418 wbs_we_i
*419 mprj

*PORTS
io_in[0] I
io_in[10] I
io_in[11] I
io_in[12] I
io_in[13] I
io_in[14] I
io_in[15] I
io_in[16] I
io_in[17] I
io_in[18] I
io_in[19] I
io_in[1] I
io_in[20] I
io_in[21] I
io_in[22] I
io_in[23] I
io_in[24] I
io_in[25] I
io_in[26] I
io_in[27] I
io_in[28] I
io_in[29] I
io_in[2] I
io_in[30] I
io_in[31] I
io_in[32] I
io_in[33] I
io_in[34] I
io_in[35] I
io_in[36] I
io_in[37] I
io_in[3] I
io_in[4] I
io_in[5] I
io_in[6] I
io_in[7] I
io_in[8] I
io_in[9] I
io_oeb[0] O
io_oeb[10] O
io_oeb[11] O
io_oeb[12] O
io_oeb[13] O
io_oeb[14] O
io_oeb[15] O
io_oeb[16] O
io_oeb[17] O
io_oeb[18] O
io_oeb[19] O
io_oeb[1] O
io_oeb[20] O
io_oeb[21] O
io_oeb[22] O
io_oeb[23] O
io_oeb[24] O
io_oeb[25] O
io_oeb[26] O
io_oeb[27] O
io_oeb[28] O
io_oeb[29] O
io_oeb[2] O
io_oeb[30] O
io_oeb[31] O
io_oeb[32] O
io_oeb[33] O
io_oeb[34] O
io_oeb[35] O
io_oeb[36] O
io_oeb[37] O
io_oeb[3] O
io_oeb[4] O
io_oeb[5] O
io_oeb[6] O
io_oeb[7] O
io_oeb[8] O
io_oeb[9] O
io_out[0] O
io_out[10] O
io_out[11] O
io_out[12] O
io_out[13] O
io_out[14] O
io_out[15] O
io_out[16] O
io_out[17] O
io_out[18] O
io_out[19] O
io_out[1] O
io_out[20] O
io_out[21] O
io_out[22] O
io_out[23] O
io_out[24] O
io_out[25] O
io_out[26] O
io_out[27] O
io_out[28] O
io_out[29] O
io_out[2] O
io_out[30] O
io_out[31] O
io_out[32] O
io_out[33] O
io_out[34] O
io_out[35] O
io_out[36] O
io_out[37] O
io_out[3] O
io_out[4] O
io_out[5] O
io_out[6] O
io_out[7] O
io_out[8] O
io_out[9] O
la_data_in[0] I
la_data_in[10] I
la_data_in[11] I
la_data_in[12] I
la_data_in[13] I
la_data_in[14] I
la_data_in[15] I
la_data_in[16] I
la_data_in[17] I
la_data_in[18] I
la_data_in[19] I
la_data_in[1] I
la_data_in[20] I
la_data_in[21] I
la_data_in[22] I
la_data_in[23] I
la_data_in[24] I
la_data_in[25] I
la_data_in[26] I
la_data_in[27] I
la_data_in[28] I
la_data_in[29] I
la_data_in[2] I
la_data_in[30] I
la_data_in[31] I
la_data_in[32] I
la_data_in[33] I
la_data_in[34] I
la_data_in[35] I
la_data_in[36] I
la_data_in[37] I
la_data_in[38] I
la_data_in[39] I
la_data_in[3] I
la_data_in[40] I
la_data_in[41] I
la_data_in[42] I
la_data_in[43] I
la_data_in[44] I
la_data_in[45] I
la_data_in[46] I
la_data_in[47] I
la_data_in[48] I
la_data_in[49] I
la_data_in[4] I
la_data_in[50] I
la_data_in[51] I
la_data_in[52] I
la_data_in[53] I
la_data_in[54] I
la_data_in[55] I
la_data_in[56] I
la_data_in[57] I
la_data_in[58] I
la_data_in[59] I
la_data_in[5] I
la_data_in[60] I
la_data_in[61] I
la_data_in[62] I
la_data_in[63] I
la_data_in[6] I
la_data_in[7] I
la_data_in[8] I
la_data_in[9] I
la_data_out[0] O
la_data_out[10] O
la_data_out[11] O
la_data_out[12] O
la_data_out[13] O
la_data_out[14] O
la_data_out[15] O
la_data_out[16] O
la_data_out[17] O
la_data_out[18] O
la_data_out[19] O
la_data_out[1] O
la_data_out[20] O
la_data_out[21] O
la_data_out[22] O
la_data_out[23] O
la_data_out[24] O
la_data_out[25] O
la_data_out[26] O
la_data_out[27] O
la_data_out[28] O
la_data_out[29] O
la_data_out[2] O
la_data_out[30] O
la_data_out[31] O
la_data_out[32] O
la_data_out[33] O
la_data_out[34] O
la_data_out[35] O
la_data_out[36] O
la_data_out[37] O
la_data_out[38] O
la_data_out[39] O
la_data_out[3] O
la_data_out[40] O
la_data_out[41] O
la_data_out[42] O
la_data_out[43] O
la_data_out[44] O
la_data_out[45] O
la_data_out[46] O
la_data_out[47] O
la_data_out[48] O
la_data_out[49] O
la_data_out[4] O
la_data_out[50] O
la_data_out[51] O
la_data_out[52] O
la_data_out[53] O
la_data_out[54] O
la_data_out[55] O
la_data_out[56] O
la_data_out[57] O
la_data_out[58] O
la_data_out[59] O
la_data_out[5] O
la_data_out[60] O
la_data_out[61] O
la_data_out[62] O
la_data_out[63] O
la_data_out[6] O
la_data_out[7] O
la_data_out[8] O
la_data_out[9] O
la_oenb[0] I
la_oenb[10] I
la_oenb[11] I
la_oenb[12] I
la_oenb[13] I
la_oenb[14] I
la_oenb[15] I
la_oenb[16] I
la_oenb[17] I
la_oenb[18] I
la_oenb[19] I
la_oenb[1] I
la_oenb[20] I
la_oenb[21] I
la_oenb[22] I
la_oenb[23] I
la_oenb[24] I
la_oenb[25] I
la_oenb[26] I
la_oenb[27] I
la_oenb[28] I
la_oenb[29] I
la_oenb[2] I
la_oenb[30] I
la_oenb[31] I
la_oenb[32] I
la_oenb[33] I
la_oenb[34] I
la_oenb[35] I
la_oenb[36] I
la_oenb[37] I
la_oenb[38] I
la_oenb[39] I
la_oenb[3] I
la_oenb[40] I
la_oenb[41] I
la_oenb[42] I
la_oenb[43] I
la_oenb[44] I
la_oenb[45] I
la_oenb[46] I
la_oenb[47] I
la_oenb[48] I
la_oenb[49] I
la_oenb[4] I
la_oenb[50] I
la_oenb[51] I
la_oenb[52] I
la_oenb[53] I
la_oenb[54] I
la_oenb[55] I
la_oenb[56] I
la_oenb[57] I
la_oenb[58] I
la_oenb[59] I
la_oenb[5] I
la_oenb[60] I
la_oenb[61] I
la_oenb[62] I
la_oenb[63] I
la_oenb[6] I
la_oenb[7] I
la_oenb[8] I
la_oenb[9] I
user_clock2 I
user_irq[0] O
user_irq[1] O
user_irq[2] O
wb_clk_i I
wb_rst_i I
wbs_ack_o O
wbs_adr_i[0] I
wbs_adr_i[10] I
wbs_adr_i[11] I
wbs_adr_i[12] I
wbs_adr_i[13] I
wbs_adr_i[14] I
wbs_adr_i[15] I
wbs_adr_i[16] I
wbs_adr_i[17] I
wbs_adr_i[18] I
wbs_adr_i[19] I
wbs_adr_i[1] I
wbs_adr_i[20] I
wbs_adr_i[21] I
wbs_adr_i[22] I
wbs_adr_i[23] I
wbs_adr_i[24] I
wbs_adr_i[25] I
wbs_adr_i[26] I
wbs_adr_i[27] I
wbs_adr_i[28] I
wbs_adr_i[29] I
wbs_adr_i[2] I
wbs_adr_i[30] I
wbs_adr_i[31] I
wbs_adr_i[3] I
wbs_adr_i[4] I
wbs_adr_i[5] I
wbs_adr_i[6] I
wbs_adr_i[7] I
wbs_adr_i[8] I
wbs_adr_i[9] I
wbs_cyc_i I
wbs_dat_i[0] I
wbs_dat_i[10] I
wbs_dat_i[11] I
wbs_dat_i[12] I
wbs_dat_i[13] I
wbs_dat_i[14] I
wbs_dat_i[15] I
wbs_dat_i[16] I
wbs_dat_i[17] I
wbs_dat_i[18] I
wbs_dat_i[19] I
wbs_dat_i[1] I
wbs_dat_i[20] I
wbs_dat_i[21] I
wbs_dat_i[22] I
wbs_dat_i[23] I
wbs_dat_i[24] I
wbs_dat_i[25] I
wbs_dat_i[26] I
wbs_dat_i[27] I
wbs_dat_i[28] I
wbs_dat_i[29] I
wbs_dat_i[2] I
wbs_dat_i[30] I
wbs_dat_i[31] I
wbs_dat_i[3] I
wbs_dat_i[4] I
wbs_dat_i[5] I
wbs_dat_i[6] I
wbs_dat_i[7] I
wbs_dat_i[8] I
wbs_dat_i[9] I
wbs_dat_o[0] O
wbs_dat_o[10] O
wbs_dat_o[11] O
wbs_dat_o[12] O
wbs_dat_o[13] O
wbs_dat_o[14] O
wbs_dat_o[15] O
wbs_dat_o[16] O
wbs_dat_o[17] O
wbs_dat_o[18] O
wbs_dat_o[19] O
wbs_dat_o[1] O
wbs_dat_o[20] O
wbs_dat_o[21] O
wbs_dat_o[22] O
wbs_dat_o[23] O
wbs_dat_o[24] O
wbs_dat_o[25] O
wbs_dat_o[26] O
wbs_dat_o[27] O
wbs_dat_o[28] O
wbs_dat_o[29] O
wbs_dat_o[2] O
wbs_dat_o[30] O
wbs_dat_o[31] O
wbs_dat_o[3] O
wbs_dat_o[4] O
wbs_dat_o[5] O
wbs_dat_o[6] O
wbs_dat_o[7] O
wbs_dat_o[8] O
wbs_dat_o[9] O
wbs_sel_i[0] I
wbs_sel_i[1] I
wbs_sel_i[2] I
wbs_sel_i[3] I
wbs_stb_i I
wbs_we_i I

*D_NET *1 0.171335
*CONN
*P io_in[0] I
*I *419:io_in[0] I *D user_proj_example
*CAP
1 io_in[0] 0.0332859
2 *419:io_in[0] 0.000519131
3 *1:9 0.0145976
4 *1:7 0.0140785
5 *1:5 0.0332859
6 *1:5 *164:9 0
7 *1:5 *168:9 0
8 *1:5 *172:9 0.0235572
9 *1:5 *293:11 0
10 *1:9 *12:9 0.0451316
11 *1:9 *39:9 0.00409907
12 *1:9 *77:9 0.0027805
*RES
1 io_in[0] *1:5 359.06 
2 *1:5 *1:7 4.5 
3 *1:7 *1:9 187.72 
4 *1:9 *419:io_in[0] 9.128 
*END

*D_NET *12 0.227425
*CONN
*P io_in[1] I
*I *419:io_in[1] I *D user_proj_example
*CAP
1 io_in[1] 0.0421024
2 *419:io_in[1] 0.000563253
3 *12:9 0.00208177
4 *12:7 0.00151851
5 *12:5 0.0421024
6 *12:5 *289:9 0
7 *12:9 *32:9 0.00205724
8 *12:9 *39:9 0.0634189
9 *12:9 *61:9 0.0240337
10 *12:9 *108:9 0.00441484
11 *1:9 *12:9 0.0451316
*RES
1 io_in[1] *12:5 358.852 
2 *12:5 *12:7 4.5 
3 *12:7 *12:9 182.728 
4 *12:9 *419:io_in[1] 9.336 
*END

*D_NET *23 0.231315
*CONN
*P io_in[2] I
*I *419:io_in[2] I *D user_proj_example
*CAP
1 io_in[2] 0.0383096
2 *419:io_in[2] 0.000783846
3 *23:9 0.00285538
4 *23:7 0.00207154
5 *23:5 0.0383096
6 *23:5 *146:9 0.0201372
7 *23:9 *33:9 0.0121635
8 *23:9 *50:9 0.00274683
9 *23:9 *88:9 0.0526435
10 *23:9 *99:9 0.0612939
*RES
1 io_in[2] *23:5 357.812 
2 *23:5 *23:7 4.5 
3 *23:7 *23:9 177.736 
4 *23:9 *419:io_in[2] 10.376 
*END

*D_NET *24 0.0935451
*CONN
*P io_in[30] I
*I *419:io_in[8] I *D user_proj_example
*CAP
1 io_in[30] 0.000834531
2 *419:io_in[8] 0.0203399
3 *24:11 0.0203399
4 *24:9 0.00496487
5 *24:7 0.0057994
6 *24:9 *25:9 0.00266592
7 *24:9 *62:9 0.00162178
8 *24:9 *100:9 0.0341048
9 *24:9 *101:9 0.00287399
*RES
1 io_in[30] *24:7 11.832 
2 *24:7 *24:9 108.056 
3 *24:9 *24:11 4.5 
4 *24:11 *419:io_in[8] 177.892 
*END

*D_NET *25 0.121684
*CONN
*P io_in[31] I
*I *419:io_in[9] I *D user_proj_example
*CAP
1 io_in[31] 0.000966898
2 *419:io_in[9] 0.0202936
3 *25:11 0.0202936
4 *25:9 0.000827393
5 *25:7 0.00179429
6 *25:9 *62:9 0.00795434
7 *25:9 *63:9 0.0288558
8 *25:9 *101:9 0.0380325
9 *24:9 *25:9 0.00266592
*RES
1 io_in[31] *25:7 12.456 
2 *25:7 *25:9 118.04 
3 *25:9 *25:11 4.5 
4 *25:11 *419:io_in[9] 177.268 
*END

*D_NET *26 0.135887
*CONN
*P io_in[32] I
*I *419:io_in[10] I *D user_proj_example
*CAP
1 io_in[32] 0.000878653
2 *419:io_in[10] 0.0204034
3 *26:11 0.0204034
4 *26:9 0.00175406
5 *26:7 0.00263272
6 *26:9 *27:9 0.0027863
7 *26:9 *101:9 0.030178
8 *26:9 *102:9 0.0421492
9 *26:9 *103:9 0.0147011
*RES
1 io_in[32] *26:7 12.04 
2 *26:7 *26:9 128.232 
3 *26:9 *26:11 4.5 
4 *26:11 *419:io_in[10] 177.684 
*END

*D_NET *27 0.130831
*CONN
*P io_in[33] I
*I *419:io_in[11] I *D user_proj_example
*CAP
1 io_in[33] 0.000945718
2 *419:io_in[11] 0.0257666
3 *27:11 0.0257666
4 *27:9 0.00627283
5 *27:7 0.00721855
6 *27:7 *419:io_in[13] 4.60842e-05
7 *27:9 *63:9 0.0132601
8 *27:9 *101:9 0.00272982
9 *27:9 *103:9 0.0460387
10 *26:9 *27:9 0.0027863
*RES
1 io_in[33] *27:7 12.456 
2 *27:7 *27:9 138.008 
3 *27:9 *27:11 4.5 
4 *27:11 *419:io_in[11] 177.268 
*END

*D_NET *28 0.114756
*CONN
*P io_in[34] I
*I *419:io_in[12] I *D user_proj_example
*CAP
1 io_in[34] 0.0204529
2 *419:io_in[12] 0.00082904
3 *28:9 0.010255
4 *28:7 0.00942598
5 *28:5 0.0204529
6 *28:9 *30:9 0.0044226
7 *28:9 *65:9 0.0489176
*RES
1 io_in[34] *28:5 178.932 
2 *28:5 *28:7 4.5 
3 *28:7 *28:9 148.408 
4 *28:9 *419:io_in[12] 10.792 
*END

*D_NET *29 0.117946
*CONN
*P io_in[35] I
*I *419:io_in[13] I *D user_proj_example
*CAP
1 io_in[35] 0.000790409
2 *419:io_in[13] 0.0204704
3 *29:11 0.0204704
4 *29:9 0.00917668
5 *29:7 0.00996709
6 *29:9 *31:9 0.00364048
7 *29:9 *66:9 0.0527072
8 *29:9 *68:9 0.00067754
9 *27:7 *419:io_in[13] 4.60842e-05
*RES
1 io_in[35] *29:7 11.624 
2 *29:7 *29:9 157.976 
3 *29:9 *29:11 4.5 
4 *29:11 *419:io_in[13] 178.1 
*END

*D_NET *30 0.0845551
*CONN
*P io_in[36] I
*I *419:io_in[14] I *D user_proj_example
*CAP
1 io_in[36] 0.0201456
2 *419:io_in[14] 0.000873162
3 *30:9 0.0193971
4 *30:7 0.018524
5 *30:5 0.0201456
6 *30:5 *343:9 0
7 *30:5 *379:9 0.00104715
8 *28:9 *30:9 0.0044226
*RES
1 io_in[36] *30:5 178.724 
2 *30:5 *30:7 4.5 
3 *30:7 *30:9 168.376 
4 *30:9 *419:io_in[14] 11 
*END

*D_NET *31 0.173427
*CONN
*P io_in[37] I
*I *419:io_in[15] I *D user_proj_example
*CAP
1 io_in[37] 0.000878653
2 *419:io_in[15] 0.0204249
3 *31:11 0.0204249
4 *31:9 0.00220407
5 *31:7 0.00308272
6 *31:9 *68:9 0.0607113
7 *31:9 *107:9 0.0620601
8 *29:9 *31:9 0.00364048
*RES
1 io_in[37] *31:7 12.04 
2 *31:7 *31:9 178.152 
3 *31:9 *31:11 4.5 
4 *31:11 *419:io_in[15] 177.684 
*END

*D_NET *32 0.210982
*CONN
*P io_in[3] I
*I *419:io_in[3] I *D user_proj_example
*CAP
1 io_in[3] 0.0410165
2 *419:io_in[3] 0.000651479
3 *32:9 0.00138308
4 *32:7 0.000731602
5 *32:5 0.0410165
6 *32:9 *33:9 0.00718097
7 *32:9 *39:9 0.00502193
8 *32:9 *50:9 0.0324827
9 *32:9 *71:9 0.0200945
10 *32:9 *108:9 0.0593457
11 *12:9 *32:9 0.00205724
*RES
1 io_in[3] *32:5 358.436 
2 *32:5 *32:7 4.5 
3 *32:7 *32:9 172.744 
4 *32:9 *419:io_in[3] 9.752 
*END

*D_NET *33 0.198856
*CONN
*P io_in[4] I
*I *419:io_in[4] I *D user_proj_example
*CAP
1 io_in[4] 0.0409282
2 *419:io_in[4] 0.000871265
3 *33:9 0.00274387
4 *33:7 0.0018726
5 *33:5 0.0409282
6 *33:9 *34:9 0.0376935
7 *33:9 *50:9 0.0029994
8 *33:9 *71:9 0.0475485
9 *33:9 *99:9 0.00392645
10 *23:9 *33:9 0.0121635
11 *32:9 *33:9 0.00718097
*RES
1 io_in[4] *33:5 358.02 
2 *33:5 *33:7 4.5 
3 *33:7 *33:9 167.752 
4 *33:9 *419:io_in[4] 10.168 
*END

*D_NET *34 0.191939
*CONN
*P io_in[5] I
*I *419:io_in[5] I *D user_proj_example
*CAP
1 io_in[5] 0.0408626
2 *419:io_in[5] 0.00076233
3 *34:9 0.00288224
4 *34:7 0.00211991
5 *34:5 0.0408626
6 *34:9 *35:9 0.000914622
7 *34:9 *36:9 0.00269554
8 *34:9 *71:9 0.00789034
9 *34:9 *110:9 0.0552556
10 *33:9 *34:9 0.0376935
*RES
1 io_in[5] *34:5 357.812 
2 *34:5 *34:7 4.5 
3 *34:7 *34:9 162.76 
4 *34:9 *419:io_in[5] 10.376 
*END

*D_NET *35 0.196721
*CONN
*P io_in[6] I
*I *419:io_in[6] I *D user_proj_example
*CAP
1 io_in[6] 0.0410165
2 *419:io_in[6] 0.000629982
3 *35:9 0.00143409
4 *35:7 0.000804106
5 *35:5 0.0410165
6 *35:9 *36:9 0.0336845
7 *35:9 *71:9 0.0264853
8 *35:9 *72:9 0.00296413
9 *35:9 *73:9 0.0434568
10 *35:9 *111:9 0.00431447
11 *34:9 *35:9 0.000914622
*RES
1 io_in[6] *35:5 358.436 
2 *35:5 *35:7 4.5 
3 *35:7 *35:9 157.768 
4 *35:9 *419:io_in[6] 9.752 
*END

*D_NET *36 0.178384
*CONN
*P io_in[7] I
*I *419:io_in[7] I *D user_proj_example
*CAP
1 io_in[7] 0.0409508
2 *419:io_in[7] 0.000609557
3 *36:9 0.00261606
4 *36:7 0.0020065
5 *36:5 0.0409508
6 *36:9 *73:9 0.00796391
7 *36:9 *74:9 0.0415474
8 *36:9 *110:9 0.00110871
9 *36:9 *112:9 0.00425024
10 *34:9 *36:9 0.00269554
11 *35:9 *36:9 0.0336845
*RES
1 io_in[7] *36:5 358.228 
2 *36:5 *36:7 4.5 
3 *36:7 *36:9 152.776 
4 *36:9 *419:io_in[7] 9.96 
*END

*D_NET *39 0.226425
*CONN
*P io_oeb[0] O
*I *419:io_oeb[0] O *D user_proj_example
*CAP
1 io_oeb[0] 0.0422535
2 *419:io_oeb[0] 0.000607376
3 *39:11 0.0422535
4 *39:9 0.00125135
5 *39:7 0.00185873
6 io_oeb[0] *227:9 0
7 io_oeb[0] *282:9 0
8 *39:9 *50:9 0.00184887
9 *39:9 *77:9 0.0638116
10 *1:9 *39:9 0.00409907
11 *12:9 *39:9 0.0634189
12 *32:9 *39:9 0.00502193
*RES
1 *419:io_oeb[0] *39:7 9.544 
2 *39:7 *39:9 184.184 
3 *39:9 *39:11 4.5 
4 *39:11 io_oeb[0] 358.644 
*END

*D_NET *50 0.233465
*CONN
*P io_oeb[1] O
*I *419:io_oeb[1] O *D user_proj_example
*CAP
1 io_oeb[1] 0.0393402
2 *419:io_oeb[1] 0.00069562
3 *50:11 0.0393402
4 *50:9 0.000806365
5 *50:7 0.00150199
6 io_oeb[1] *272:9 0.0145862
7 *50:9 *77:9 0.034828
8 *50:9 *88:9 0.0622887
9 *23:9 *50:9 0.00274683
10 *32:9 *50:9 0.0324827
11 *33:9 *50:9 0.0029994
12 *39:9 *50:9 0.00184887
*RES
1 *419:io_oeb[1] *50:7 9.96 
2 *50:7 *50:9 179.4 
3 *50:9 *50:11 4.5 
4 *50:11 io_oeb[1] 358.228 
*END

*D_NET *61 0.185359
*CONN
*P io_oeb[2] O
*I *419:io_oeb[2] O *D user_proj_example
*CAP
1 io_oeb[2] 0.0411488
2 *419:io_oeb[2] 0.000540647
3 *61:11 0.0411488
4 *61:9 0.00729363
5 *61:7 0.00783428
6 *61:9 *70:9 0.0403047
7 *61:9 *108:9 0.00237475
8 *61:9 *109:9 0.0206796
9 *12:9 *61:9 0.0240337
*RES
1 *419:io_oeb[2] *61:7 9.128 
2 *61:7 *61:9 174.408 
3 *61:9 *61:11 4.5 
4 *61:11 io_oeb[2] 359.06 
*END

*D_NET *62 0.0861682
*CONN
*P io_oeb[30] O
*I *419:io_oeb[8] O *D user_proj_example
*CAP
1 io_oeb[30] 0.000941647
2 *419:io_oeb[8] 0.0202269
3 *62:9 0.00867366
4 *62:7 0.00773201
5 *62:5 0.0202269
6 io_oeb[30] *102:5 0.000386808
7 *62:9 *63:9 0.0184042
8 *24:9 *62:9 0.00162178
9 *25:9 *62:9 0.00795434
*RES
1 *419:io_oeb[8] *62:5 176.852 
2 *62:5 *62:7 4.5 
3 *62:7 *62:9 114.712 
4 *62:9 io_oeb[30] 12.872 
*END

*D_NET *63 0.116031
*CONN
*P io_oeb[31] O
*I *419:io_oeb[9] O *D user_proj_example
*CAP
1 io_oeb[31] 0.00101102
2 *419:io_oeb[9] 0.020271
3 *63:9 0.00575562
4 *63:7 0.0047446
5 *63:5 0.020271
6 *63:9 *101:9 0.00345771
7 *25:9 *63:9 0.0288558
8 *27:9 *63:9 0.0132601
9 *62:9 *63:9 0.0184042
*RES
1 *419:io_oeb[9] *63:5 177.06 
2 *63:5 *63:7 4.5 
3 *63:7 *63:9 124.696 
4 *63:9 io_oeb[31] 12.664 
*END

*D_NET *64 0.106386
*CONN
*P io_oeb[32] O
*I *419:io_oeb[10] O *D user_proj_example
*CAP
1 io_oeb[32] 0.00101831
2 *419:io_oeb[10] 0.0204701
3 *64:9 0.00890521
4 *64:7 0.0078869
5 *64:5 0.0204701
6 *64:9 *102:9 0.0433588
7 *64:9 *103:9 0.000733617
8 *64:9 *104:9 0.00354315
*RES
1 *419:io_oeb[10] *64:5 178.1 
2 *64:5 *64:7 4.5 
3 *64:7 *64:9 134.68 
4 *64:9 io_oeb[32] 11.624 
*END

*D_NET *65 0.110975
*CONN
*P io_oeb[33] O
*I *419:io_oeb[11] O *D user_proj_example
*CAP
1 io_oeb[33] 0.0204088
2 *419:io_oeb[11] 0.00101832
3 *65:11 0.0204088
4 *65:9 0.00960159
5 *65:7 0.0106199
6 *28:9 *65:9 0.0489176
*RES
1 *419:io_oeb[11] *65:7 11 
2 *65:7 *65:9 145.08 
3 *65:9 *65:11 4.5 
4 *65:11 io_oeb[33] 178.724 
*END

*D_NET *66 0.154982
*CONN
*P io_oeb[34] O
*I *419:io_oeb[12] O *D user_proj_example
*CAP
1 io_oeb[34] 0.00106243
2 *419:io_oeb[12] 0.0204475
3 *66:9 0.00295666
4 *66:7 0.00189423
5 *66:5 0.0204475
6 *66:9 *68:9 0.00303088
7 *66:9 *104:9 0.0514196
8 *66:9 *106:9 0.00101638
9 *29:9 *66:9 0.0527072
*RES
1 *419:io_oeb[12] *66:5 177.892 
2 *66:5 *66:7 4.5 
3 *66:7 *66:9 154.648 
4 *66:9 io_oeb[34] 11.832 
*END

*D_NET *67 0.155966
*CONN
*P io_oeb[35] O
*I *419:io_oeb[13] O *D user_proj_example
*CAP
1 io_oeb[35] 0.00101102
2 *419:io_oeb[13] 0.020314
3 *67:9 0.00346061
4 *67:7 0.00244959
5 *67:5 0.020314
6 *67:9 *104:9 0.00548386
7 *67:9 *105:9 0.0554566
8 *67:9 *106:9 0.047476
*RES
1 *419:io_oeb[13] *67:5 177.06 
2 *67:5 *67:7 4.5 
3 *67:7 *67:9 164.632 
4 *67:9 io_oeb[35] 12.664 
*END

*D_NET *68 0.170623
*CONN
*P io_oeb[36] O
*I *419:io_oeb[14] O *D user_proj_example
*CAP
1 io_oeb[36] 0.000922776
2 *419:io_oeb[14] 0.0203807
3 *68:9 0.00300575
4 *68:7 0.00208297
5 *68:5 0.0203807
6 *68:9 *106:9 0.05943
7 *29:9 *68:9 0.00067754
8 *31:9 *68:9 0.0607113
9 *66:9 *68:9 0.00303088
*RES
1 *419:io_oeb[14] *68:5 177.476 
2 *68:5 *68:7 4.5 
3 *68:7 *68:9 174.616 
4 *68:9 io_oeb[36] 12.248 
*END

*D_NET *69 0.130259
*CONN
*P io_oeb[37] O
*I *419:io_oeb[15] O *D user_proj_example
*CAP
1 io_oeb[37] 0.000790409
2 *419:io_oeb[15] 0.0205075
3 *69:9 0.0129211
4 *69:7 0.0121307
5 *69:5 0.0205075
6 *69:5 io_out[35] 1.09198e-05
7 *69:9 *107:9 0.0633912
*RES
1 *419:io_oeb[15] *69:5 178.1 
2 *69:5 *69:7 4.5 
3 *69:7 *69:9 184.6 
4 *69:9 io_oeb[37] 11.624 
*END

*D_NET *70 0.203767
*CONN
*P io_oeb[3] O
*I *419:io_oeb[3] O *D user_proj_example
*CAP
1 io_oeb[3] 0.0411047
2 *419:io_oeb[3] 0.000584769
3 *70:11 0.0411047
4 *70:9 0.000917722
5 *70:7 0.00150249
6 *70:9 *71:9 0.00273871
7 *70:9 *72:9 0.00880475
8 *70:9 *108:9 0.0585877
9 *70:9 *109:9 0.00811635
10 *61:9 *70:9 0.0403047
*RES
1 *419:io_oeb[3] *70:7 9.336 
2 *70:7 *70:9 169.416 
3 *70:9 *70:11 4.5 
4 *70:11 io_oeb[3] 358.852 
*END

*D_NET *71 0.194663
*CONN
*P io_oeb[4] O
*I *419:io_oeb[4] O *D user_proj_example
*CAP
1 io_oeb[4] 0.0409508
2 *419:io_oeb[4] 0.000841881
3 *71:11 0.0409508
4 *71:9 0.00112411
5 *71:7 0.00196599
6 *71:9 *72:9 0.000132902
7 *71:9 *108:9 0.0039392
8 *32:9 *71:9 0.0200945
9 *33:9 *71:9 0.0475485
10 *34:9 *71:9 0.00789034
11 *35:9 *71:9 0.0264853
12 *70:9 *71:9 0.00273871
*RES
1 *419:io_oeb[4] *71:7 9.96 
2 *71:7 *71:9 164.424 
3 *71:9 *71:11 4.5 
4 *71:11 io_oeb[4] 358.228 
*END

*D_NET *72 0.178105
*CONN
*P io_oeb[5] O
*I *419:io_oeb[5] O *D user_proj_example
*CAP
1 io_oeb[5] 0.0410973
2 *419:io_oeb[5] 0.000519131
3 *72:11 0.0410973
4 *72:9 0.00586604
5 *72:7 0.00638517
6 io_oeb[5] *108:7 1.81404e-05
7 *72:9 *109:9 0.0270961
8 *72:9 *111:9 0.0441236
9 *35:9 *72:9 0.00296413
10 *70:9 *72:9 0.00880475
11 *71:9 *72:9 0.000132902
*RES
1 *419:io_oeb[5] *72:7 9.128 
2 *72:7 *72:9 159.224 
3 *72:9 *72:11 4.5 
4 *72:11 io_oeb[5] 359.06 
*END

*D_NET *73 0.191102
*CONN
*P io_oeb[6] O
*I *419:io_oeb[6] O *D user_proj_example
*CAP
1 io_oeb[6] 0.041039
2 *419:io_oeb[6] 0.000564344
3 *73:11 0.041039
4 *73:9 0.0019176
5 *73:7 0.00248194
6 *73:9 *111:9 0.0526397
7 *35:9 *73:9 0.0434568
8 *36:9 *73:9 0.00796391
*RES
1 *419:io_oeb[6] *73:7 9.544 
2 *73:7 *73:9 154.44 
3 *73:9 *73:11 4.5 
4 *73:11 io_oeb[6] 358.644 
*END

*D_NET *74 0.183815
*CONN
*P io_oeb[7] O
*I *419:io_oeb[7] O *D user_proj_example
*CAP
1 io_oeb[7] 0.0409067
2 *419:io_oeb[7] 0.000632163
3 *74:11 0.0409067
4 *74:9 0.0042328
5 *74:7 0.00486497
6 *74:9 *112:9 0.050724
7 *36:9 *74:9 0.0415474
*RES
1 *419:io_oeb[7] *74:7 10.168 
2 *74:7 *74:9 149.448 
3 *74:9 *74:11 4.5 
4 *74:11 io_oeb[7] 358.02 
*END

*D_NET *77 0.203663
*CONN
*P io_out[0] O
*I *419:io_out[0] O *D user_proj_example
*CAP
1 io_out[0] 0.0424062
2 *419:io_out[0] 0.000651498
3 *77:11 0.0424062
4 *77:9 0.00597817
5 *77:7 0.00662967
6 io_out[0] *160:9 0
7 io_out[0] *297:9 0
8 *77:9 *88:9 0.00417099
9 *1:9 *77:9 0.0027805
10 *39:9 *77:9 0.0638116
11 *50:9 *77:9 0.034828
*RES
1 *419:io_out[0] *77:7 9.752 
2 *77:7 *77:9 186.056 
3 *77:9 *77:11 4.5 
4 *77:11 io_out[0] 358.436 
*END

*D_NET *88 0.213915
*CONN
*P io_out[1] O
*I *419:io_out[1] O *D user_proj_example
*CAP
1 io_out[1] 0.0383256
2 *419:io_out[1] 0.000739743
3 *88:11 0.0383256
4 *88:9 0.00387784
5 *88:7 0.00461758
6 io_out[1] *277:9 0.00892513
7 *23:9 *88:9 0.0526435
8 *50:9 *88:9 0.0622887
9 *77:9 *88:9 0.00417099
*RES
1 *419:io_out[1] *88:7 10.168 
2 *88:7 *88:9 181.064 
3 *88:9 *88:11 4.5 
4 *88:11 io_out[1] 358.02 
*END

*D_NET *99 0.169217
*CONN
*P io_out[2] O
*I *419:io_out[2] O *D user_proj_example
*CAP
1 io_out[2] 0.04084
2 *419:io_out[2] 0.000827968
3 *99:11 0.04084
4 *99:9 0.0103305
5 *99:7 0.0111585
6 *23:9 *99:9 0.0612939
7 *33:9 *99:9 0.00392645
*RES
1 *419:io_out[2] *99:7 10.584 
2 *99:7 *99:9 176.072 
3 *99:9 *99:11 4.5 
4 *99:11 io_out[2] 357.604 
*END

*D_NET *100 0.0928365
*CONN
*P io_out[30] O
*I *419:io_out[8] O *D user_proj_example
*CAP
1 io_out[30] 0.000790409
2 *419:io_out[8] 0.020384
3 *100:9 0.00738614
4 *100:7 0.00659573
5 *100:5 0.020384
6 *100:9 *101:9 0.00319139
7 *24:9 *100:9 0.0341048
*RES
1 *419:io_out[8] *100:5 178.1 
2 *100:5 *100:7 4.5 
3 *100:7 *100:9 111.592 
4 *100:9 io_out[30] 11.624 
*END

*D_NET *101 0.124653
*CONN
*P io_out[31] O
*I *419:io_out[9] O *D user_proj_example
*CAP
1 io_out[31] 0.000922776
2 *419:io_out[9] 0.0203377
3 *101:9 0.00175718
4 *101:7 0.000834406
5 *101:5 0.0203377
6 *24:9 *101:9 0.00287399
7 *25:9 *101:9 0.0380325
8 *26:9 *101:9 0.030178
9 *27:9 *101:9 0.00272982
10 *63:9 *101:9 0.00345771
11 *100:9 *101:9 0.00319139
*RES
1 *419:io_out[9] *101:5 177.476 
2 *101:5 *101:7 4.5 
3 *101:7 *101:9 121.368 
4 *101:9 io_out[31] 12.248 
*END

*D_NET *102 0.136331
*CONN
*P io_out[32] O
*I *419:io_out[10] O *D user_proj_example
*CAP
1 io_out[32] 0.000834531
2 *419:io_out[10] 0.0203555
3 *102:9 0.00261263
4 *102:7 0.0017781
5 *102:5 0.0203555
6 *102:9 *103:9 0.00450042
7 io_oeb[30] *102:5 0.000386808
8 *26:9 *102:9 0.0421492
9 *64:9 *102:9 0.0433588
*RES
1 *419:io_out[10] *102:5 177.892 
2 *102:5 *102:7 4.5 
3 *102:7 *102:9 131.352 
4 *102:9 io_out[32] 11.832 
*END

*D_NET *103 0.141671
*CONN
*P io_out[33] O
*I *419:io_out[11] O *D user_proj_example
*CAP
1 io_out[33] 0.000922776
2 *419:io_out[11] 0.0203377
3 *103:9 0.00271632
4 *103:7 0.00179355
5 *103:5 0.0203377
6 *103:9 *104:9 0.0290946
7 *103:9 *105:9 0.000494357
8 *26:9 *103:9 0.0147011
9 *27:9 *103:9 0.0460387
10 *64:9 *103:9 0.000733617
11 *102:9 *103:9 0.00450042
*RES